74
Model[1]: Jmol 14.6.4_2016.11.05  2016-11-10 03:30
Mo      0.04110      1.01840      2.66500
Se      1.68560      1.97120      4.33760
Se      1.68560      1.97120      0.99240
Mo     -1.58250      3.87860      2.66500
Se      0.06420      4.82930      4.34640
Se      0.06420      4.82930      0.98360
Mo     -3.24880      6.71390      2.66500
Se     -1.60150      7.66170      4.33760
Se     -1.60150      7.66170      0.99240
Mo     -4.87670      9.55890      2.66500
Se     -3.23620     10.50760      4.34400
Se     -3.23620     10.50760      0.98600
Mo     -6.51910     12.40250      2.66500
Se     -4.87730     13.34880      4.34400
Se     -4.87730     13.34880      0.98600
Mo      3.33360      1.02540      2.66500
Se      4.98140      1.97110      4.33760
Se      4.98140      1.97110      0.99240
Mo      1.70950      3.88030      2.66500
Se      3.71319      5.38370      4.33908
Se      3.64234      5.36008      1.00874
Mo      0.06410      6.72840      2.66500
Se      1.68780      7.66530      4.33750
Se      1.68780      7.66530      0.99250
Mo     -1.59710      9.56150      2.66500
Se      0.04580     10.51540      4.33770
Se      0.04580     10.51540      0.99230
Mo     -3.23520     12.40250      2.66500
Se     -1.59710     13.34820      4.35010
Se     -1.59710     13.34820      0.97990
Mo      6.62610      1.01840      2.66500
Se      8.25960      1.97940      4.34390
Se      8.25960      1.97940      0.98610
Mo      4.95680      3.88000      2.66500
Se      6.60170      4.82900      4.34650
Se      6.60170      4.82900      0.98350
Se      4.61073      7.17877      4.33908
Se      4.58711      7.15515      1.00874
Mo      1.68710      9.54000      2.66500
Se      3.33160     10.48980      4.34650
Se      3.33160     10.48980      0.98350
Mo      0.04250     12.41590      2.66500
Se      1.69170     13.34990      4.34390
Se      1.69170     13.34990      0.98610
Mo      9.90400      1.03190      2.66500
Se     11.54200      1.97740      4.34690
Se     11.54200      1.97740      0.98310
Mo      8.24840      3.87850      2.66500
Se      9.89850      4.81870      4.34390
Se      9.89850      4.81870      0.98610
Mo      6.60070      6.72810      2.66500
Se      8.26610      7.66150      4.33770
Se      8.26610      7.66150      0.99240
Mo      4.97630      9.53980      2.66500
Se      6.61760     10.51520      4.33760
Se      6.61760     10.51520      0.99240
Mo      3.33130     12.39110      2.66500
Se      4.97070     13.34990      4.34390
Se      4.97070     13.34990      0.98610
Mo     13.18000      1.03190      2.66500
Se     14.82440      1.97940      4.34390
Se     14.82440      1.97940      0.98610
Mo     11.54150      3.86860      2.66500
Se     13.18430      4.81880      4.34390
Se     13.18430      4.81880      0.98610
Mo      9.91360      6.71380      2.66500
Se     11.54090      7.66740      4.35010
Se     11.54090      7.66740      0.97990
Mo      8.26080      9.56130      2.66500
Se      9.89970     10.50750      4.34400
Se      9.89970     10.50750      0.98600
Mo      6.62000     12.41590      2.66500
Se      8.25950     13.34820      4.35010
Se      8.25950     13.34820      0.97990
