74
Model[1]: Jmol 14.6.4_2016.11.05  2016-11-10 03:30
Mo      0.00880      0.93420      2.60310
S       1.59400      1.84680      4.16100
S       1.58440      1.82540      1.03370
Mo     -1.54930      3.68100      2.59900
S       0.04370      4.59220      4.16280
S       0.03600      4.60490      1.03470
Mo     -3.15020      6.40310      2.59520
S      -1.59030      7.32180      4.16440
S      -1.56790      7.31970      1.03700
Mo     -4.71610      9.13860      2.59930
S      -3.14440     10.05020      4.17200
S      -3.14500     10.04910      1.02650
Mo     -6.29140     11.86600      2.59920
S      -4.71720     12.77150      4.17180
S      -4.71610     12.77120      1.02640
Mo      3.17040      0.92770      2.59890
S       4.75600      1.82580      4.16410
S       4.74680      1.84610      1.03660
Mo      1.62630      3.66810      2.57570
S       3.17693      4.37829      4.18060
S       3.17607      4.41987      1.05836
Mo      0.02620      6.43740      2.62150
S       1.82846      7.19335      4.17484
S       1.86843      7.19415      1.05312
Mo     -1.57560      9.14400      2.59930
S       0.00790     10.04980      4.16160
S      -0.00500     10.06800      1.03410
Mo     -3.14170     11.86610      2.59920
S      -1.56600     12.77760      4.17190
S      -1.56430     12.77480      1.02640
Mo      6.33190      0.93420      2.59510
S       7.89950      1.85730      4.16670
S       7.90310      1.85790      1.02780
Mo      4.71390      3.66780      2.62120
S       6.30340      4.60430      4.16320
S       6.29630      4.59190      1.03500
S       4.95115      7.46016      4.17178
S       4.99195      7.41935      1.04994
Mo      1.56930      9.11080      2.57720
S       3.16110     10.01880      4.16380
S       3.17580     10.01840      1.03570
Mo      0.01030     11.87830      2.60330
S       1.59600     12.77690      4.17060
S       1.59400     12.77410      1.03180
Mo      9.48010      0.94420      2.59920
S      11.05500      1.85340      4.16990
S      11.05500      1.85330      1.02850
Mo      7.88900      3.68080      2.59920
S       9.47450      4.58040      4.17060
S       9.47330      4.58370      1.03170
Mo      6.31220      6.43670      2.57700
S       7.90600      7.31930      4.16170
S       7.92840      7.32160      1.03430
Mo      4.76760      9.11020      2.62270
S       6.34240     10.06810      4.16480
S       6.32860     10.04910      1.03740
Mo      3.16820     11.85350      2.59950
S       4.74240     12.77420      4.16680
S       4.74010     12.77670      1.02800
Mo     12.63000      0.94420      2.59920
S      14.20710      1.85810      4.17040
S      14.21040      1.85740      1.03160
Mo     11.05460      3.67180      2.59920
S      12.63580      4.58380      4.16670
S      12.63440      4.58060      1.02780
Mo      9.48860      6.40290      2.60330
S      11.05550      7.31820      4.17200
S      11.05230      7.31820      1.02650
Mo      7.91290      9.14370      2.59950
S       9.48220     10.04910      4.17200
S       9.48150     10.05000      1.02660
Mo      6.32600     11.87820      2.59540
S       7.90070     12.77490      4.17200
S       7.90210     12.77740      1.02640
