     2
unstable frequency at     -0.002 1/cm IR int. is 95.940 a.m.u.; force const. is 0.000 mDyne/Ang.
Mo        0.0000    0.0000    0.0000   -0.0000    0.0000    0.0722
Mo        1.5412    1.5412    1.5412   -0.0000    0.0000    0.0722
     2
unstable frequency at     -0.001 1/cm IR int. is 95.940 a.m.u.; force const. is 0.000 mDyne/Ang.
Mo        0.0000    0.0000    0.0000   -0.0000    0.0722    0.0000
Mo        1.5412    1.5412    1.5412   -0.0000    0.0722    0.0000
     2
unstable frequency at     -0.000 1/cm IR int. is 95.940 a.m.u.; force const. is 0.000 mDyne/Ang.
Mo        0.0000    0.0000    0.0000    0.0722    0.0000    0.0000
Mo        1.5412    1.5412    1.5412    0.0722   -0.0000   -0.0000
     2
stable frequency at    193.440 1/cm IR int. is 95.940 a.m.u.; force const. is 2.115 mDyne/Ang.
Mo        0.0000    0.0000    0.0000    0.0000    0.0722    0.0000
Mo        1.5412    1.5412    1.5412    0.0000   -0.0722   -0.0000
     2
stable frequency at    193.440 1/cm IR int. is 95.940 a.m.u.; force const. is 2.115 mDyne/Ang.
Mo        0.0000    0.0000    0.0000    0.0722    0.0000   -0.0000
Mo        1.5412    1.5412    1.5412   -0.0722    0.0000    0.0000
     2
stable frequency at    206.849 1/cm IR int. is 95.940 a.m.u.; force const. is 2.419 mDyne/Ang.
Mo        0.0000    0.0000    0.0000   -0.0000    0.0000    0.0722
Mo        1.5412    1.5412    1.5412    0.0000   -0.0000   -0.0722
